CM 26 ft vertical with 26 radials, EZNEC-importable NEC model
CM Generated for user request
CM
CM Vertical height: 26 ft = 7.924800 m
CM Number of radials: 26
CM Radial length: 20 ft = 6.096000 m
CM Radials are evenly spaced in azimuth and lie on the ground plane at z=0
CM Feedpoint is at the base of the vertical
CM Ground: average ground
CE
GW 1 31 0.000000 0.000000 0.000000 0.000000 0.000000 7.924800 0.001600
GW 2 21 0.000000 0.000000 0.000000 6.096000 0.000000 0.000000 0.001600
GW 3 21 0.000000 0.000000 0.000000 5.918861 1.458868 0.000000 0.001600
GW 4 21 0.000000 0.000000 0.000000 5.397740 2.832952 0.000000 0.001600
GW 5 21 0.000000 0.000000 0.000000 4.562922 4.042396 0.000000 0.001600
GW 6 21 0.000000 0.000000 0.000000 3.462923 5.016910 0.000000 0.001600
GW 7 21 0.000000 0.000000 0.000000 2.161671 5.699859 0.000000 0.001600
GW 8 21 0.000000 0.000000 0.000000 0.734792 6.051553 0.000000 0.001600
GW 9 21 0.000000 0.000000 0.000000 -0.734792 6.051553 0.000000 0.001600
GW 10 21 0.000000 0.000000 0.000000 -2.161671 5.699859 0.000000 0.001600
GW 11 21 0.000000 0.000000 0.000000 -3.462923 5.016910 0.000000 0.001600
GW 12 21 0.000000 0.000000 0.000000 -4.562922 4.042396 0.000000 0.001600
GW 13 21 0.000000 0.000000 0.000000 -5.397740 2.832952 0.000000 0.001600
GW 14 21 0.000000 0.000000 0.000000 -5.918861 1.458868 0.000000 0.001600
GW 15 21 0.000000 0.000000 0.000000 -6.096000 -0.000000 0.000000 0.001600
GW 16 21 0.000000 0.000000 0.000000 -5.918861 -1.458868 0.000000 0.001600
GW 17 21 0.000000 0.000000 0.000000 -5.397740 -2.832952 0.000000 0.001600
GW 18 21 0.000000 0.000000 0.000000 -4.562922 -4.042396 0.000000 0.001600
GW 19 21 0.000000 0.000000 0.000000 -3.462923 -5.016910 0.000000 0.001600
GW 20 21 0.000000 0.000000 0.000000 -2.161671 -5.699859 0.000000 0.001600
GW 21 21 0.000000 0.000000 0.000000 -0.734792 -6.051553 0.000000 0.001600
GW 22 21 0.000000 0.000000 0.000000 0.734792 -6.051553 0.000000 0.001600
GW 23 21 0.000000 0.000000 0.000000 2.161671 -5.699859 0.000000 0.001600
GW 24 21 0.000000 0.000000 0.000000 3.462923 -5.016910 0.000000 0.001600
GW 25 21 0.000000 0.000000 0.000000 4.562922 -4.042396 0.000000 0.001600
GW 26 21 0.000000 0.000000 0.000000 5.397740 -2.832952 0.000000 0.001600
GW 27 21 0.000000 0.000000 0.000000 5.918861 -1.458868 0.000000 0.001600
GE 0
GN 2 0 0 0 0.005 13
FR 0 1 0 0 7.150 0
EX 0 1 1 0 1.0 0
RP 0 91 181 1000 0 0 2 2
EN
