CM 2m Moxon Rectangle for 145.0 M
CM
CM ! Written by EZNEC/Pro+ v. 7.0 in NEC-2 format.
CE
GW 1,31,0.,2.,5.391,0.,2.,4.609,.0016
GW 2,7,0.,2.,5.391,0.,1.892,5.391,.0016
GW 3,7,0.,2.,4.609,0.,1.892,4.609,.0016
GW 4,31,0.,1.714,5.391,0.,1.714,4.609,.0016
GW 5,7,0.,1.714,5.391,0.,1.857,5.391,.0016
GW 6,7,0.,1.714,4.609,0.,1.857,4.609,.0016
GW 7,7,0.,1.79434,5.16067,0.,1.79434,4.83932,.0016
GW 8,31,-2.,0.,5.391,-2.,0.,4.609,.0016
GW 9,7,-2.,0.,5.391,-1.892,0.,5.391,.0016
GW 10,7,-2.,0.,4.609,-1.892,0.,4.609,.0016
GW 11,31,-1.714,0.,5.391,-1.714,0.,4.609,.0016
GW 12,7,-1.714,0.,5.391,-1.857,0.,5.391,.0016
GW 13,7,-1.714,0.,4.609,-1.857,0.,4.609,.0016
GW 14,7,-1.79434,0.,5.16067,-1.79434,0.,4.83932,.0016
GW 15,31,0.,-2.,5.391,0.,-2.,4.609,.0016
GW 16,7,0.,-2.,5.391,0.,-1.892,5.391,.0016
GW 17,7,0.,-2.,4.609,0.,-1.892,4.609,.0016
GW 18,31,0.,-1.714,5.391,0.,-1.714,4.609,.0016
GW 19,7,0.,-1.714,5.391,0.,-1.857,5.391,.0016
GW 20,7,0.,-1.714,4.609,0.,-1.857,4.609,.0016
GW 21,7,0.,-1.79434,5.16067,0.,-1.79434,4.83932,.0016
GW 22,31,2.,0.,5.391,2.,0.,4.609,.0016
GW 23,7,2.,0.,5.391,1.892,0.,5.391,.0016
GW 24,7,2.,0.,4.609,1.892,0.,4.609,.0016
GW 25,31,1.714,0.,5.391,1.714,0.,4.609,.0016
GW 26,7,1.714,0.,5.391,1.857,0.,5.391,.0016
GW 27,7,1.714,0.,4.609,1.857,0.,4.609,.0016
GW 28,7,1.79434,0.,5.16067,1.79434,0.,4.83932,.0016
GW 29,7,0.,0.,.1,0.,0.,7.,.0016
GE 1
LD 5,0,1,395,5.8E+07,1.
FR 0,1,0,0,445.
GN 2,0,0,0,13.,.005
EX 0,1,16,0,.9999999,0.
EX 0,7,4,0,1.000001,0.
EX 0,8,16,0,.9999999,0.
EX 0,14,4,0,1.000001,0.
EX 0,15,16,0,.9999999,0.
EX 0,21,4,0,1.000001,0.
EX 0,22,16,0,.9999999,0.
EX 0,28,4,0,1.000001,0.
RP 0,19,73,1001,0.,0.,5.,5.,0.
EN
