CM 80m_EFHW-sloper-L_3.85M
CM
CM ! Written by EZNEC/Pro+ v. 7.0 in NEC-2 format.
CE
GW 1,21,0.,0.,0.,29.79,0.,10.,.0006455
GW 2,21,29.79,0.,10.,29.79,0.,2.,.0006455
GE 1
FR 0,1,0,0,3.85
GN 2,0,0,0,13.,.005
EX 0,1,1,0,.9999999,0.
RP 0,19,73,1001,0.,0.,5.,5.,0.
EN
