CM 10 m EFHW inverted-L antenna f
CM
CM ! Written by EZNEC/Pro+ v. 7.0 in NEC-2 format.
CE
GW 1,21,0.,0.,10.,18.5,0.,5.,.0006455
GW 2,21,18.5,0.,5.,37.,0.,1.,.0006455
GE 1
LD 5,0,1,42,5.7471E+7,1.
FR 0,1,0,0,7.3
GN 2,0,0,0,13.,.005
EX 0,1,1,0,.9999999,0.
RP 0,19,73,1001,0.,0.,5.,5.,0.
EN
