CM Dual-band stacked Moxon antenna
CM Generated for user request
CM
CM One 146 MHz Moxon and one 444 MHz Moxon
CM Same X and Y centerline, 50 mm Z separation
CM Only the 146 MHz Moxon is driven
CM This is a simplified coupled-structure NEC model for experimentation
CM 146 MHz Moxon dimensions: span=1.020 m, depth=0.340 m, tail=0.110 m, feed gap=0.010 m
CM 444 MHz Moxon dimensions: span=0.335 m, depth=0.115 m, tail=0.035 m, feed gap=0.005 m
CM Both loops lie in the XY plane
CM Free-space model (no ground) to avoid biasing either band during near-field coupling study
CE
GW 1 11 -0.510000 0.055000 0.000000 -0.400000 0.055000 0.000000 0.001500
GW 2 11 -0.400000 0.055000 0.000000 -0.400000 0.170000 0.000000 0.001500
GW 3 11 -0.400000 0.170000 0.000000 -0.400000 -0.170000 0.000000 0.001500
GW 4 11 -0.400000 -0.170000 0.000000 -0.400000 -0.055000 0.000000 0.001500
GW 5 11 -0.400000 -0.055000 0.000000 -0.510000 -0.055000 0.000000 0.001500
GW 6 11 0.510000 0.055000 0.000000 0.400000 0.055000 0.000000 0.001500
GW 7 11 0.400000 0.055000 0.000000 0.400000 0.170000 0.000000 0.001500
GW 8 11 0.400000 0.170000 0.000000 0.400000 0.005000 0.000000 0.001500
GW 9 11 0.400000 0.005000 0.000000 0.400000 -0.005000 0.000000 0.001500
GW 10 11 0.400000 -0.005000 0.000000 0.400000 -0.170000 0.000000 0.001500
GW 11 11 0.400000 -0.170000 0.000000 0.400000 -0.055000 0.000000 0.001500
GW 12 11 0.400000 -0.055000 0.000000 0.510000 -0.055000 0.000000 0.001500
GW 100 11 -0.167500 0.017500 0.050000 -0.132500 0.017500 0.050000 0.001500
GW 101 11 -0.132500 0.017500 0.050000 -0.132500 0.057500 0.050000 0.001500
GW 102 11 -0.132500 0.057500 0.050000 -0.132500 -0.057500 0.050000 0.001500
GW 103 11 -0.132500 -0.057500 0.050000 -0.132500 -0.017500 0.050000 0.001500
GW 104 11 -0.132500 -0.017500 0.050000 -0.167500 -0.017500 0.050000 0.001500
GW 105 11 0.167500 0.017500 0.050000 0.132500 0.017500 0.050000 0.001500
GW 106 11 0.132500 0.017500 0.050000 0.132500 0.057500 0.050000 0.001500
GW 107 11 0.132500 0.057500 0.050000 0.132500 0.002500 0.050000 0.001500
GW 108 11 0.132500 0.002500 0.050000 0.132500 -0.002500 0.050000 0.001500
GW 109 11 0.132500 -0.002500 0.050000 0.132500 -0.057500 0.050000 0.001500
GW 110 11 0.132500 -0.057500 0.050000 0.132500 -0.017500 0.050000 0.001500
GW 111 11 0.132500 -0.017500 0.050000 0.167500 -0.017500 0.050000 0.001500
GE 0
GN -1
FR 0 1 0 0 146.0 0
EX 0 8 6 0 1.0 0
RP 0 91 181 1000 0 0 2 2
EN
