CM Inverted-V dipole for 3.800 MHz
CM Total starting length: 37.539 m (123.16 ft), each leg 18.769 m
CM Legs slope 30 degrees below horizon; endpoints 1.0 m AGL; apex 10.385 m AGL
CM Coordinates are meters. Wire radius = 1.0 mm.
CE
GW 1 25 -16.254659 0.000000 1.000000 0.000000 0.000000 10.384632 0.001000
GW 2 25 0.000000 0.000000 10.384632 16.254659 0.000000 1.000000 0.001000
GE 1
GN 2 0 0 0 13.000000 0.005000
EK
EX 0 1 25 0 0.500000 0.000000
EX 0 2 1 0 0.500000 0.000000
FR 0 1 0 0 3.800000 0
RP 0 181 361 1000 -90.000000 0.000000 1.000000 1.000000
EN
