CM Moxon Rectangle, converted with 4nec2 on 16-Apr-26 14:34
CE
GW	1	5	0.0602	-0.12075	0	0.0901	-0.12075	0	1.5e-3
GW	2	35	0.0901	-0.12075	0	0.0901	0.12075	0	1.5e-3
GW	3	5	0.0901	0.12075	0	0.0602	0.12075	0	1.5e-3
GW	4	7	0.0469	-0.12075	0	0	-0.12075	0	1.5e-3
GW	5	35	0	-0.12075	0	0	0.12075	0	1.5e-3
GW	6	7	0	0.12075	0	0.0469	0.12075	0	1.5e-3
GE	0
EX	0	2	18	0	1	0
GN	-1
FR	0	1	0	0	444	0
