CM Moxon Rectangle, converted with 4nec2 on 16-Apr-26 14:34
CE
CM Modified from uploaded file: duplicated original antenna at Z + 1/2 wavelength (0.337604 m at 444.000 MHz)
CM Common-feed connection wires added using EX-tag wire endpoints from tag 2.
GW 1 5 0.060200 -0.120750 0.000000 0.090100 -0.120750 0.000000 0.001500
GW 2 35 0.090100 -0.120750 0.000000 0.090100 0.120750 0.000000 0.001500
GW 3 5 0.090100 0.120750 0.000000 0.060200 0.120750 0.000000 0.001500
GW 4 7 0.046900 -0.120750 0.000000 0.000000 -0.120750 0.000000 0.001500
GW 5 35 0.000000 -0.120750 0.000000 0.000000 0.120750 0.000000 0.001500
GW 6 7 0.000000 0.120750 0.000000 0.046900 0.120750 0.000000 0.001500
GW 8 5 0.060200 -0.120750 0.337604 0.090100 -0.120750 0.337604 0.001500
GW 9 35 0.090100 -0.120750 0.337604 0.090100 0.120750 0.337604 0.001500
GW 10 5 0.090100 0.120750 0.337604 0.060200 0.120750 0.337604 0.001500
GW 11 7 0.046900 -0.120750 0.337604 0.000000 -0.120750 0.337604 0.001500
GW 12 35 0.000000 -0.120750 0.337604 0.000000 0.120750 0.337604 0.001500
GW 13 7 0.000000 0.120750 0.337604 0.046900 0.120750 0.337604 0.001500
GW 14 11 0.090100 -0.120750 0.000000 0.090100 -0.120750 0.337604 0.001500
GW 15 11 0.090100 0.120750 0.000000 0.090100 0.120750 0.337604 0.001500
GE	0
EX	0	2	18	0	1	0
GN	-1
FR	0	1	0	0	444	0
