CM Dual 146 MHz stacked Moxon antennas, vertical polarization
CM Generated for user request
CM
CM Design frequency: 146.0 MHz
CM Vertical stack spacing: 0.75 wavelength = 1.540030 m center-to-center
CM Two Moxons are connected for common feed using two bridge wires between corresponding feedpoint ends.
CM Approximate Moxon dimensions: span=1.020 m, depth=0.340 m, tail=0.110 m, feed gap=0.010 m
CM Lower Moxon center: z=4.229985 m
CM Upper Moxon center: z=5.770015 m
CM Element plane is XZ for vertical polarization.
CM Ground: average ground
CE
GW 1 11 -0.510000 0.000000 4.284985 -0.400000 0.000000 4.284985 0.001500
GW 2 11 -0.400000 0.000000 4.284985 -0.400000 0.000000 4.399985 0.001500
GW 3 11 -0.400000 0.000000 4.399985 -0.400000 0.000000 4.059985 0.001500
GW 4 11 -0.400000 0.000000 4.059985 -0.400000 0.000000 4.174985 0.001500
GW 5 11 -0.400000 0.000000 4.174985 -0.510000 0.000000 4.174985 0.001500
GW 6 11 0.510000 0.000000 4.284985 0.400000 0.000000 4.284985 0.001500
GW 7 11 0.400000 0.000000 4.284985 0.400000 0.000000 4.399985 0.001500
GW 8 11 0.400000 0.000000 4.399985 0.400000 0.000000 4.234985 0.001500
GW 9 11 0.400000 0.000000 4.234985 0.400000 0.000000 4.224985 0.001500
GW 10 11 0.400000 0.000000 4.224985 0.400000 0.000000 4.059985 0.001500
GW 11 11 0.400000 0.000000 4.059985 0.400000 0.000000 4.174985 0.001500
GW 12 11 0.400000 0.000000 4.174985 0.510000 0.000000 4.174985 0.001500
GW 100 11 -0.510000 0.000000 5.825015 -0.400000 0.000000 5.825015 0.001500
GW 101 11 -0.400000 0.000000 5.825015 -0.400000 0.000000 5.940015 0.001500
GW 102 11 -0.400000 0.000000 5.940015 -0.400000 0.000000 5.600015 0.001500
GW 103 11 -0.400000 0.000000 5.600015 -0.400000 0.000000 5.715015 0.001500
GW 104 11 -0.400000 0.000000 5.715015 -0.510000 0.000000 5.715015 0.001500
GW 105 11 0.510000 0.000000 5.825015 0.400000 0.000000 5.825015 0.001500
GW 106 11 0.400000 0.000000 5.825015 0.400000 0.000000 5.940015 0.001500
GW 107 11 0.400000 0.000000 5.940015 0.400000 0.000000 5.775015 0.001500
GW 108 11 0.400000 0.000000 5.775015 0.400000 0.000000 5.765015 0.001500
GW 109 11 0.400000 0.000000 5.765015 0.400000 0.000000 5.600015 0.001500
GW 110 11 0.400000 0.000000 5.600015 0.400000 0.000000 5.715015 0.001500
GW 111 11 0.400000 0.000000 5.715015 0.510000 0.000000 5.715015 0.001500
GW 200 11 0.400000 0.000000 4.234985 0.400000 0.000000 5.775015 0.001500
GW 201 11 0.400000 0.000000 4.224985 0.400000 0.000000 5.765015 0.001500
GE 0
GN 2 0 0 0 0.005 13
FR 0 1 0 0 146.0 0
EX 0 8 6 0 1.0 0
RP 0 91 181 1000 0 0 2 2
EN
