CM Stacked 146 MHz dual Moxon, horizontal polarization
CM Generated for user request
CM
CM Design frequency: 146.0 MHz
CM Two Moxon antennas stacked one over the other, center-to-center spacing = 1/2 wavelength = 1.0267 m
CM One common feedpoint modeled as a single source on the lower Moxon driven element.
CM The upper Moxon is coupled in this simplified common-feed model.
CM Approximate Moxon dimensions: span=1.020 m, depth=0.340 m, tail=0.110 m, feed gap=0.010 m
CM Ground: average ground
CM Lower Moxon center height: 4.4867 m
CM Upper Moxon center height: 5.5133 m
CM Moxon loops lie in the XY plane for horizontal polarization.
CE
GW 1 11 -0.5100 0.0550 4.4867 -0.4000 0.0550 4.4867 0.0015
GW 2 11 -0.4000 0.0550 4.4867 -0.4000 0.1700 4.4867 0.0015
GW 3 11 -0.4000 0.1700 4.4867 -0.4000 -0.1700 4.4867 0.0015
GW 4 11 -0.4000 -0.1700 4.4867 -0.4000 -0.0550 4.4867 0.0015
GW 5 11 -0.4000 -0.0550 4.4867 -0.5100 -0.0550 4.4867 0.0015
GW 6 11 0.5100 0.0550 4.4867 0.4000 0.0550 4.4867 0.0015
GW 7 11 0.4000 0.0550 4.4867 0.4000 0.1700 4.4867 0.0015
GW 8 11 0.4000 0.1700 4.4867 0.4000 0.0050 4.4867 0.0015
GW 9 11 0.4000 0.0050 4.4867 0.4000 -0.0050 4.4867 0.0015
GW 10 11 0.4000 -0.0050 4.4867 0.4000 -0.1700 4.4867 0.0015
GW 11 11 0.4000 -0.1700 4.4867 0.4000 -0.0550 4.4867 0.0015
GW 12 11 0.4000 -0.0550 4.4867 0.5100 -0.0550 4.4867 0.0015
GW 100 11 -0.5100 0.0550 5.5133 -0.4000 0.0550 5.5133 0.0015
GW 101 11 -0.4000 0.0550 5.5133 -0.4000 0.1700 5.5133 0.0015
GW 102 11 -0.4000 0.1700 5.5133 -0.4000 -0.1700 5.5133 0.0015
GW 103 11 -0.4000 -0.1700 5.5133 -0.4000 -0.0550 5.5133 0.0015
GW 104 11 -0.4000 -0.0550 5.5133 -0.5100 -0.0550 5.5133 0.0015
GW 105 11 0.5100 0.0550 5.5133 0.4000 0.0550 5.5133 0.0015
GW 106 11 0.4000 0.0550 5.5133 0.4000 0.1700 5.5133 0.0015
GW 107 11 0.4000 0.1700 5.5133 0.4000 0.0050 5.5133 0.0015
GW 108 11 0.4000 0.0050 5.5133 0.4000 -0.0050 5.5133 0.0015
GW 109 11 0.4000 -0.0050 5.5133 0.4000 -0.1700 5.5133 0.0015
GW 110 11 0.4000 -0.1700 5.5133 0.4000 -0.0550 5.5133 0.0015
GW 111 11 0.4000 -0.0550 5.5133 0.5100 -0.0550 5.5133 0.0015
GE 0
GN 2 0 0 0 0.005 13
FR 0 1 0 0 146.0 0
EX 0 8 6 0 1.0 0
RP 0 91 181 1000 0 0 2 2
EN
